<?xml version="1.0" encoding="UTF-8"?>

<!-- generated on 05/22/21 22:33:53 by Eclipse SUMO od2trips Version 1.8.0
<configuration xmlns:xsi="http://www.w3.org/2001/XMLSchema-instance" xsi:noNamespaceSchemaLocation="http://sumo.dlr.de/xsd/od2tripsConfiguration.xsd">

    <input>
        <taz-files value="gen.taz.xml"/>
        <od-matrix-files value="od.txt"/>
    </input>

    <output>
        <flow-output value="gen.flow.xml"/>
    </output>

</configuration>
-->

<routes xmlns:xsi="http://www.w3.org/2001/XMLSchema-instance" xsi:noNamespaceSchemaLocation="http://sumo.dlr.de/xsd/routes_file.xsd">
    <flow id="0" begin="0.00" end="3600.00" number="1000" fromTaz="bottom" toTaz="left" departLane="free" departSpeed="max"/>
    <flow id="1" begin="0.00" end="3600.00" number="1000" fromTaz="bottom" toTaz="right" departLane="free" departSpeed="max"/>
    <flow id="2" begin="0.00" end="3600.00" number="1000" fromTaz="bottom" toTaz="top" departLane="free" departSpeed="max"/>
    <flow id="3" begin="0.00" end="3600.00" number="1000" fromTaz="left" toTaz="bottom" departLane="free" departSpeed="max"/>
    <flow id="4" begin="0.00" end="3600.00" number="1000" fromTaz="left" toTaz="right" departLane="free" departSpeed="max"/>
    <flow id="5" begin="0.00" end="3600.00" number="1000" fromTaz="left" toTaz="top" departLane="free" departSpeed="max"/>
    <flow id="6" begin="0.00" end="3600.00" number="1000" fromTaz="right" toTaz="bottom" departLane="free" departSpeed="max"/>
    <flow id="7" begin="0.00" end="3600.00" number="1000" fromTaz="right" toTaz="left" departLane="free" departSpeed="max"/>
    <flow id="8" begin="0.00" end="3600.00" number="1000" fromTaz="right" toTaz="top" departLane="free" departSpeed="max"/>
    <flow id="9" begin="0.00" end="3600.00" number="100" fromTaz="top" toTaz="bottom" departLane="free" departSpeed="max"/>
    <flow id="10" begin="0.00" end="3600.00" number="100" fromTaz="top" toTaz="left" departLane="free" departSpeed="max"/>
    <flow id="11" begin="0.00" end="3600.00" number="100" fromTaz="top" toTaz="right" departLane="free" departSpeed="max"/>
</routes>
