<?xml version="1.0" encoding="UTF-8"?>

<!-- generated on 05/13/21 19:43:10 by Eclipse SUMO netgenerate Version 1.8.0
<configuration xmlns:xsi="http://www.w3.org/2001/XMLSchema-instance" xsi:noNamespaceSchemaLocation="http://sumo.dlr.de/xsd/netgenerateConfiguration.xsd">

    <grid_network>
        <grid value="true"/>
        <grid.number value="1"/>
        <grid.length value="700"/>
        <grid.attach-length value="500"/>
    </grid_network>

    <output>
        <output-file value="gen.net.xml"/>
    </output>

    <processing>
        <turn-lanes value="1"/>
        <turn-lanes.length value="150"/>
    </processing>

    <building_defaults>
        <default.lanenumber value="2"/>
        <default.speed value="20"/>
    </building_defaults>

    <tls_building>
        <tls.guess value="true"/>
        <tls.green.time value="30"/>
        <tls.left-green.time value="30"/>
    </tls_building>

</configuration>
-->

<net version="1.6" junctionCornerDetail="5" limitTurnSpeed="5.50" xmlns:xsi="http://www.w3.org/2001/XMLSchema-instance" xsi:noNamespaceSchemaLocation="http://sumo.dlr.de/xsd/net_file.xsd">

    <location netOffset="0.00,0.00" convBoundary="0.00,0.00,1000.00,1000.00" origBoundary="0.00,0.00,1000.00,1000.00" projParameter="!"/>

    <edge id=":A0_0" function="internal">
        <lane id=":A0_0_0" index="0" speed="6.51" length="9.03" shape="493.60,512.00 493.25,509.55 492.20,507.80 490.45,506.75 488.00,506.40"/>
    </edge>
    <edge id=":A0_1" function="internal">
        <lane id=":A0_1_0" index="0" speed="20.00" length="24.00" shape="493.60,512.00 493.60,488.00"/>
        <lane id=":A0_1_1" index="1" speed="20.00" length="24.00" shape="496.80,512.00 496.80,488.00"/>
    </edge>
    <edge id=":A0_3" function="internal">
        <lane id=":A0_3_0" index="0" speed="9.84" length="8.68" shape="500.00,512.00 500.75,505.35 501.60,503.56"/>
    </edge>
    <edge id=":A0_4" function="internal">
        <lane id=":A0_4_0" index="0" speed="3.65" length="2.34" shape="500.00,512.00 500.80,510.80 501.60,510.40"/>
    </edge>
    <edge id=":A0_20" function="internal">
        <lane id=":A0_20_0" index="0" speed="9.84" length="13.32" shape="501.60,503.56 503.00,500.60 506.75,497.75 512.00,496.80"/>
    </edge>
    <edge id=":A0_21" function="internal">
        <lane id=":A0_21_0" index="0" speed="3.65" length="2.34" shape="501.60,510.40 502.40,510.80 503.20,512.00"/>
    </edge>
    <edge id=":A0_5" function="internal">
        <lane id=":A0_5_0" index="0" speed="6.51" length="9.03" shape="512.00,506.40 509.55,506.75 507.80,507.80 506.75,509.55 506.40,512.00"/>
    </edge>
    <edge id=":A0_6" function="internal">
        <lane id=":A0_6_0" index="0" speed="20.00" length="24.00" shape="512.00,506.40 488.00,506.40"/>
        <lane id=":A0_6_1" index="1" speed="20.00" length="24.00" shape="512.00,503.20 488.00,503.20"/>
    </edge>
    <edge id=":A0_8" function="internal">
        <lane id=":A0_8_0" index="0" speed="9.84" length="8.68" shape="512.00,500.00 505.35,499.25 503.56,498.40"/>
    </edge>
    <edge id=":A0_9" function="internal">
        <lane id=":A0_9_0" index="0" speed="3.65" length="2.34" shape="512.00,500.00 510.80,499.20 510.40,498.40"/>
    </edge>
    <edge id=":A0_22" function="internal">
        <lane id=":A0_22_0" index="0" speed="9.84" length="13.32" shape="503.56,498.40 500.60,497.00 497.75,493.25 496.80,488.00"/>
    </edge>
    <edge id=":A0_23" function="internal">
        <lane id=":A0_23_0" index="0" speed="3.65" length="2.34" shape="510.40,498.40 510.80,497.60 512.00,496.80"/>
    </edge>
    <edge id=":A0_10" function="internal">
        <lane id=":A0_10_0" index="0" speed="6.51" length="9.03" shape="506.40,488.00 506.75,490.45 507.80,492.20 509.55,493.25 512.00,493.60"/>
    </edge>
    <edge id=":A0_11" function="internal">
        <lane id=":A0_11_0" index="0" speed="20.00" length="24.00" shape="506.40,488.00 506.40,512.00"/>
        <lane id=":A0_11_1" index="1" speed="20.00" length="24.00" shape="503.20,488.00 503.20,512.00"/>
    </edge>
    <edge id=":A0_13" function="internal">
        <lane id=":A0_13_0" index="0" speed="9.84" length="8.68" shape="500.00,488.00 499.25,494.65 498.40,496.44"/>
    </edge>
    <edge id=":A0_14" function="internal">
        <lane id=":A0_14_0" index="0" speed="3.65" length="2.34" shape="500.00,488.00 499.20,489.20 498.40,489.60"/>
    </edge>
    <edge id=":A0_24" function="internal">
        <lane id=":A0_24_0" index="0" speed="9.84" length="13.32" shape="498.40,496.44 497.00,499.40 493.25,502.25 488.00,503.20"/>
    </edge>
    <edge id=":A0_25" function="internal">
        <lane id=":A0_25_0" index="0" speed="3.65" length="2.34" shape="498.40,489.60 497.60,489.20 496.80,488.00"/>
    </edge>
    <edge id=":A0_15" function="internal">
        <lane id=":A0_15_0" index="0" speed="6.51" length="9.03" shape="488.00,493.60 490.45,493.25 492.20,492.20 493.25,490.45 493.60,488.00"/>
    </edge>
    <edge id=":A0_16" function="internal">
        <lane id=":A0_16_0" index="0" speed="20.00" length="24.00" shape="488.00,493.60 512.00,493.60"/>
        <lane id=":A0_16_1" index="1" speed="20.00" length="24.00" shape="488.00,496.80 512.00,496.80"/>
    </edge>
    <edge id=":A0_18" function="internal">
        <lane id=":A0_18_0" index="0" speed="9.84" length="8.68" shape="488.00,500.00 494.65,500.75 496.44,501.60"/>
    </edge>
    <edge id=":A0_19" function="internal">
        <lane id=":A0_19_0" index="0" speed="3.65" length="2.34" shape="488.00,500.00 489.20,500.80 489.60,501.60"/>
    </edge>
    <edge id=":A0_26" function="internal">
        <lane id=":A0_26_0" index="0" speed="9.84" length="13.32" shape="496.44,501.60 499.40,503.00 502.25,506.75 503.20,512.00"/>
    </edge>
    <edge id=":A0_27" function="internal">
        <lane id=":A0_27_0" index="0" speed="3.65" length="2.34" shape="489.60,501.60 489.20,502.40 488.00,503.20"/>
    </edge>
    <edge id=":bottom0_0" function="internal">
        <lane id=":bottom0_0_0" index="0" speed="4.72" length="9.35" shape="496.80,0.00 498.40,-2.40 500.00,-3.20 501.60,-2.40 503.20,0.00"/>
    </edge>
    <edge id=":bottom0A0.350.00_0" function="internal">
        <lane id=":bottom0A0.350.00_0_0" index="0" speed="20.00" length="8.27" shape="506.40,346.00 506.40,354.00"/>
        <lane id=":bottom0A0.350.00_0_1" index="1" speed="20.00" length="8.27" shape="503.20,346.00 503.20,354.00"/>
        <lane id=":bottom0A0.350.00_0_2" index="2" speed="20.00" length="8.27" shape="503.20,346.00 502.70,348.46 501.60,350.00 500.50,351.54 500.00,354.00"/>
    </edge>
    <edge id=":left0_0" function="internal">
        <lane id=":left0_0_0" index="0" speed="4.72" length="9.35" shape="0.00,503.20 -2.40,501.60 -3.20,500.00 -2.40,498.40 0.00,496.80"/>
    </edge>
    <edge id=":left0A0.350.00_0" function="internal">
        <lane id=":left0A0.350.00_0_0" index="0" speed="20.00" length="8.27" shape="346.00,493.60 354.00,493.60"/>
        <lane id=":left0A0.350.00_0_1" index="1" speed="20.00" length="8.27" shape="346.00,496.80 354.00,496.80"/>
        <lane id=":left0A0.350.00_0_2" index="2" speed="20.00" length="8.27" shape="346.00,496.80 348.46,497.30 350.00,498.40 351.54,499.50 354.00,500.00"/>
    </edge>
    <edge id=":right0_0" function="internal">
        <lane id=":right0_0_0" index="0" speed="4.72" length="9.35" shape="1000.00,496.80 1002.40,498.40 1003.20,500.00 1002.40,501.60 1000.00,503.20"/>
    </edge>
    <edge id=":right0A0.350.00_0" function="internal">
        <lane id=":right0A0.350.00_0_0" index="0" speed="20.00" length="8.27" shape="654.00,506.40 646.00,506.40"/>
        <lane id=":right0A0.350.00_0_1" index="1" speed="20.00" length="8.27" shape="654.00,503.20 646.00,503.20"/>
        <lane id=":right0A0.350.00_0_2" index="2" speed="20.00" length="8.27" shape="654.00,503.20 651.54,502.70 650.00,501.60 648.46,500.50 646.00,500.00"/>
    </edge>
    <edge id=":top0_0" function="internal">
        <lane id=":top0_0_0" index="0" speed="4.72" length="9.35" shape="503.20,1000.00 501.60,1002.40 500.00,1003.20 498.40,1002.40 496.80,1000.00"/>
    </edge>
    <edge id=":top0A0.350.00_0" function="internal">
        <lane id=":top0A0.350.00_0_0" index="0" speed="20.00" length="8.27" shape="493.60,654.00 493.60,646.00"/>
        <lane id=":top0A0.350.00_0_1" index="1" speed="20.00" length="8.27" shape="496.80,654.00 496.80,646.00"/>
        <lane id=":top0A0.350.00_0_2" index="2" speed="20.00" length="8.27" shape="496.80,654.00 497.30,651.54 498.40,650.00 499.50,648.46 500.00,646.00"/>
    </edge>

    <edge id="A0bottom0" from="A0" to="bottom0" priority="-1" shape="498.40,500.00 498.40,0.00">
        <lane id="A0bottom0_0" index="0" speed="20.00" length="488.00" shape="493.60,488.00 493.60,0.00"/>
        <lane id="A0bottom0_1" index="1" speed="20.00" length="488.00" shape="496.80,488.00 496.80,0.00"/>
    </edge>
    <edge id="A0left0" from="A0" to="left0" priority="-1" shape="500.00,501.60 0.00,501.60">
        <lane id="A0left0_0" index="0" speed="20.00" length="488.00" shape="488.00,506.40 0.00,506.40"/>
        <lane id="A0left0_1" index="1" speed="20.00" length="488.00" shape="488.00,503.20 0.00,503.20"/>
    </edge>
    <edge id="A0right0" from="A0" to="right0" priority="-1" shape="500.00,498.40 1000.00,498.40">
        <lane id="A0right0_0" index="0" speed="20.00" length="488.00" shape="512.00,493.60 1000.00,493.60"/>
        <lane id="A0right0_1" index="1" speed="20.00" length="488.00" shape="512.00,496.80 1000.00,496.80"/>
    </edge>
    <edge id="A0top0" from="A0" to="top0" priority="-1" shape="501.60,500.00 501.60,1000.00">
        <lane id="A0top0_0" index="0" speed="20.00" length="488.00" shape="506.40,512.00 506.40,1000.00"/>
        <lane id="A0top0_1" index="1" speed="20.00" length="488.00" shape="503.20,512.00 503.20,1000.00"/>
    </edge>
    <edge id="bottom0A0" from="bottom0" to="bottom0A0.350.00" priority="-1" shape="501.60,0.00 501.60,350.00">
        <lane id="bottom0A0_0" index="0" speed="20.00" length="346.00" shape="506.40,0.00 506.40,346.00"/>
        <lane id="bottom0A0_1" index="1" speed="20.00" length="346.00" shape="503.20,0.00 503.20,346.00"/>
    </edge>
    <edge id="bottom0A0.350.00" from="bottom0A0.350.00" to="A0" priority="-1" shape="498.40,350.00 498.40,500.00">
        <lane id="bottom0A0.350.00_0" index="0" speed="20.00" length="134.00" shape="506.40,354.00 506.40,488.00"/>
        <lane id="bottom0A0.350.00_1" index="1" speed="20.00" length="134.00" shape="503.20,354.00 503.20,488.00"/>
        <lane id="bottom0A0.350.00_2" index="2" speed="20.00" length="134.00" shape="500.00,354.00 500.00,488.00"/>
    </edge>
    <edge id="left0A0" from="left0" to="left0A0.350.00" priority="-1" shape="0.00,498.40 350.00,498.40">
        <lane id="left0A0_0" index="0" speed="20.00" length="346.00" shape="0.00,493.60 346.00,493.60"/>
        <lane id="left0A0_1" index="1" speed="20.00" length="346.00" shape="0.00,496.80 346.00,496.80"/>
    </edge>
    <edge id="left0A0.350.00" from="left0A0.350.00" to="A0" priority="-1" shape="350.00,501.60 500.00,501.60">
        <lane id="left0A0.350.00_0" index="0" speed="20.00" length="134.00" shape="354.00,493.60 488.00,493.60"/>
        <lane id="left0A0.350.00_1" index="1" speed="20.00" length="134.00" shape="354.00,496.80 488.00,496.80"/>
        <lane id="left0A0.350.00_2" index="2" speed="20.00" length="134.00" shape="354.00,500.00 488.00,500.00"/>
    </edge>
    <edge id="right0A0" from="right0" to="right0A0.350.00" priority="-1" shape="1000.00,501.60 650.00,501.60">
        <lane id="right0A0_0" index="0" speed="20.00" length="346.00" shape="1000.00,506.40 654.00,506.40"/>
        <lane id="right0A0_1" index="1" speed="20.00" length="346.00" shape="1000.00,503.20 654.00,503.20"/>
    </edge>
    <edge id="right0A0.350.00" from="right0A0.350.00" to="A0" priority="-1" shape="650.00,498.40 500.00,498.40">
        <lane id="right0A0.350.00_0" index="0" speed="20.00" length="134.00" shape="646.00,506.40 512.00,506.40"/>
        <lane id="right0A0.350.00_1" index="1" speed="20.00" length="134.00" shape="646.00,503.20 512.00,503.20"/>
        <lane id="right0A0.350.00_2" index="2" speed="20.00" length="134.00" shape="646.00,500.00 512.00,500.00"/>
    </edge>
    <edge id="top0A0" from="top0" to="top0A0.350.00" priority="-1" shape="498.40,1000.00 498.40,650.00">
        <lane id="top0A0_0" index="0" speed="20.00" length="346.00" shape="493.60,1000.00 493.60,654.00"/>
        <lane id="top0A0_1" index="1" speed="20.00" length="346.00" shape="496.80,1000.00 496.80,654.00"/>
    </edge>
    <edge id="top0A0.350.00" from="top0A0.350.00" to="A0" priority="-1" shape="501.60,650.00 501.60,500.00">
        <lane id="top0A0.350.00_0" index="0" speed="20.00" length="134.00" shape="493.60,646.00 493.60,512.00"/>
        <lane id="top0A0.350.00_1" index="1" speed="20.00" length="134.00" shape="496.80,646.00 496.80,512.00"/>
        <lane id="top0A0.350.00_2" index="2" speed="20.00" length="134.00" shape="500.00,646.00 500.00,512.00"/>
    </edge>

    <tlLogic id="A0" type="static" programID="0" offset="0">
        <phase duration="30" state="GGGrrrrrrrGGGrrrrrrr"/>
        <phase duration="5"  state="yyyrrrrrrryyyrrrrrrr"/>
        <phase duration="30" state="rrrGGrrrrrrrrGGrrrrr"/>
        <phase duration="5"  state="rrryyrrrrrrrryyrrrrr"/>
        <phase duration="30" state="rrrrrGGGrrrrrrrGGGrr"/>
        <phase duration="5"  state="rrrrryyyrrrrrrryyyrr"/>
        <phase duration="30" state="rrrrrrrrGGrrrrrrrrGG"/>
        <phase duration="5"  state="rrrrrrrryyrrrrrrrryy"/>
    </tlLogic>

    <junction id="A0" type="traffic_light" x="500.00" y="500.00" incLanes="top0A0.350.00_0 top0A0.350.00_1 top0A0.350.00_2 right0A0.350.00_0 right0A0.350.00_1 right0A0.350.00_2 bottom0A0.350.00_0 bottom0A0.350.00_1 bottom0A0.350.00_2 left0A0.350.00_0 left0A0.350.00_1 left0A0.350.00_2" intLanes=":A0_0_0 :A0_1_0 :A0_1_1 :A0_20_0 :A0_21_0 :A0_5_0 :A0_6_0 :A0_6_1 :A0_22_0 :A0_23_0 :A0_10_0 :A0_11_0 :A0_11_1 :A0_24_0 :A0_25_0 :A0_15_0 :A0_16_0 :A0_16_1 :A0_26_0 :A0_27_0" shape="492.00,512.00 508.00,512.00 508.44,509.78 509.00,509.00 509.78,508.44 510.78,508.11 512.00,508.00 512.00,492.00 509.78,491.56 509.00,491.00 508.44,490.22 508.11,489.22 508.00,488.00 492.00,488.00 491.56,490.22 491.00,491.00 490.22,491.56 489.22,491.89 488.00,492.00 488.00,508.00 490.22,508.44 491.00,509.00 491.56,509.78 491.89,510.78">
        <request index="0"  response="00000000000000000000" foes="00000000000011000000" cont="0"/>
        <request index="1"  response="01000000000100000000" foes="01111110000111000000" cont="0"/>
        <request index="2"  response="01000000000100000000" foes="01111110000111000000" cont="0"/>
        <request index="3"  response="01000001100100000000" foes="01110001101111000000" cont="1"/>
        <request index="4"  response="01000001100000000000" foes="01000001100000000000" cont="1"/>
        <request index="5"  response="00000001100000000000" foes="00000001100000000000" cont="0"/>
        <request index="6"  response="00000011100000001111" foes="11000011100000001111" cont="0"/>
        <request index="7"  response="00000011100000001111" foes="11000011100000001111" cont="0"/>
        <request index="8"  response="00110011100000001110" foes="00110111100000001110" cont="1"/>
        <request index="9"  response="00110000000000001000" foes="00110000000000001000" cont="1"/>
        <request index="10" response="00000000000000000000" foes="00110000000000000000" cont="0"/>
        <request index="11" response="01000000000100000000" foes="01110000000111111000" cont="0"/>
        <request index="12" response="01000000000100000000" foes="01110000000111111000" cont="0"/>
        <request index="13" response="01000000000100000110" foes="11110000000111000110" cont="1"/>
        <request index="14" response="00000000000100000110" foes="00000000000100000110" cont="1"/>
        <request index="15" response="00000000000000000110" foes="00000000000000000110" cont="0"/>
        <request index="16" response="00000011110000001110" foes="00000011111100001110" cont="0"/>
        <request index="17" response="00000011110000001110" foes="00000011111100001110" cont="0"/>
        <request index="18" response="00000011100011001110" foes="00000011100011011110" cont="1"/>
        <request index="19" response="00000010000011000000" foes="00000010000011000000" cont="1"/>
    </junction>
    <junction id="bottom0" type="priority" x="500.00" y="0.00" incLanes="A0bottom0_0 A0bottom0_1" intLanes=":bottom0_0_0" shape="501.60,0.00 492.00,0.00 498.40,0.00" fringe="outer">
        <request index="0" response="0" foes="0" cont="0"/>
    </junction>
    <junction id="bottom0A0.350.00" type="priority" x="500.00" y="350.00" incLanes="bottom0A0_0 bottom0A0_1" intLanes=":bottom0A0.350.00_0_0 :bottom0A0.350.00_0_1 :bottom0A0.350.00_0_2" shape="498.40,354.00 508.00,354.00 508.00,346.00 501.60,346.00 500.77,349.03 499.23,350.97 498.64,352.21">
        <request index="0" response="000" foes="000" cont="0"/>
        <request index="1" response="000" foes="000" cont="0"/>
        <request index="2" response="000" foes="000" cont="0"/>
    </junction>
    <junction id="left0" type="priority" x="0.00" y="500.00" incLanes="A0left0_0 A0left0_1" intLanes=":left0_0_0" shape="0.00,498.40 0.00,508.00 0.00,501.60" fringe="outer">
        <request index="0" response="0" foes="0" cont="0"/>
    </junction>
    <junction id="left0A0.350.00" type="priority" x="350.00" y="500.00" incLanes="left0A0_0 left0A0_1" intLanes=":left0A0.350.00_0_0 :left0A0.350.00_0_1 :left0A0.350.00_0_2" shape="354.00,501.60 354.00,492.00 346.00,492.00 346.00,498.40 349.03,499.23 350.97,500.77 352.21,501.36">
        <request index="0" response="000" foes="000" cont="0"/>
        <request index="1" response="000" foes="000" cont="0"/>
        <request index="2" response="000" foes="000" cont="0"/>
    </junction>
    <junction id="right0" type="priority" x="1000.00" y="500.00" incLanes="A0right0_0 A0right0_1" intLanes=":right0_0_0" shape="1000.00,501.60 1000.00,492.00 1000.00,498.40" fringe="outer">
        <request index="0" response="0" foes="0" cont="0"/>
    </junction>
    <junction id="right0A0.350.00" type="priority" x="650.00" y="500.00" incLanes="right0A0_0 right0A0_1" intLanes=":right0A0.350.00_0_0 :right0A0.350.00_0_1 :right0A0.350.00_0_2" shape="654.00,508.00 654.00,501.60 650.97,500.77 649.03,499.23 647.79,498.64 646.00,498.40 646.00,508.00">
        <request index="0" response="000" foes="000" cont="0"/>
        <request index="1" response="000" foes="000" cont="0"/>
        <request index="2" response="000" foes="000" cont="0"/>
    </junction>
    <junction id="top0" type="priority" x="500.00" y="1000.00" incLanes="A0top0_0 A0top0_1" intLanes=":top0_0_0" shape="498.40,1000.00 508.00,1000.00 501.60,1000.00" fringe="outer">
        <request index="0" response="0" foes="0" cont="0"/>
    </junction>
    <junction id="top0A0.350.00" type="priority" x="500.00" y="650.00" incLanes="top0A0_0 top0A0_1" intLanes=":top0A0.350.00_0_0 :top0A0.350.00_0_1 :top0A0.350.00_0_2" shape="492.00,654.00 498.40,654.00 499.23,650.97 500.77,649.03 501.36,647.79 501.60,646.00 492.00,646.00">
        <request index="0" response="000" foes="000" cont="0"/>
        <request index="1" response="000" foes="000" cont="0"/>
        <request index="2" response="000" foes="000" cont="0"/>
    </junction>

    <junction id=":A0_20_0" type="internal" x="501.60" y="503.56" incLanes=":A0_3_0 bottom0A0.350.00_0 bottom0A0.350.00_1" intLanes=":A0_6_0 :A0_6_1 :A0_8_0 :A0_9_0 :A0_10_0 :A0_11_0 :A0_11_1 :A0_16_0 :A0_16_1 :A0_18_0"/>
    <junction id=":A0_21_0" type="internal" x="501.60" y="510.40" incLanes=":A0_4_0 bottom0A0.350.00_0 bottom0A0.350.00_1 left0A0.350.00_2 right0A0.350.00_0" intLanes=":A0_5_0 :A0_11_0 :A0_11_1 :A0_18_0"/>
    <junction id=":A0_22_0" type="internal" x="503.56" y="498.40" incLanes=":A0_8_0 left0A0.350.00_0 left0A0.350.00_1" intLanes=":A0_1_0 :A0_1_1 :A0_3_0 :A0_11_0 :A0_11_1 :A0_13_0 :A0_14_0 :A0_15_0 :A0_16_0 :A0_16_1"/>
    <junction id=":A0_23_0" type="internal" x="510.40" y="498.40" incLanes=":A0_9_0 bottom0A0.350.00_0 left0A0.350.00_0 left0A0.350.00_1 top0A0.350.00_2" intLanes=":A0_3_0 :A0_10_0 :A0_16_0 :A0_16_1"/>
    <junction id=":A0_24_0" type="internal" x="498.40" y="496.44" incLanes=":A0_13_0 top0A0.350.00_0 top0A0.350.00_1" intLanes=":A0_0_0 :A0_1_0 :A0_1_1 :A0_6_0 :A0_6_1 :A0_8_0 :A0_16_0 :A0_16_1 :A0_18_0 :A0_19_0"/>
    <junction id=":A0_25_0" type="internal" x="498.40" y="489.60" incLanes=":A0_14_0 left0A0.350.00_0 right0A0.350.00_2 top0A0.350.00_0 top0A0.350.00_1" intLanes=":A0_1_0 :A0_1_1 :A0_8_0 :A0_15_0"/>
    <junction id=":A0_26_0" type="internal" x="496.44" y="501.60" incLanes=":A0_18_0 right0A0.350.00_0 right0A0.350.00_1" intLanes=":A0_1_0 :A0_1_1 :A0_3_0 :A0_4_0 :A0_5_0 :A0_6_0 :A0_6_1 :A0_11_0 :A0_11_1 :A0_13_0"/>
    <junction id=":A0_27_0" type="internal" x="489.60" y="501.60" incLanes=":A0_19_0 bottom0A0.350.00_2 right0A0.350.00_0 right0A0.350.00_1 top0A0.350.00_0" intLanes=":A0_0_0 :A0_6_0 :A0_6_1 :A0_13_0"/>

    <connection from="A0bottom0" to="bottom0A0" fromLane="1" toLane="1" via=":bottom0_0_0" dir="t" state="M"/>
    <connection from="A0left0" to="left0A0" fromLane="1" toLane="1" via=":left0_0_0" dir="t" state="M"/>
    <connection from="A0right0" to="right0A0" fromLane="1" toLane="1" via=":right0_0_0" dir="t" state="M"/>
    <connection from="A0top0" to="top0A0" fromLane="1" toLane="1" via=":top0_0_0" dir="t" state="M"/>
    <connection from="bottom0A0" to="bottom0A0.350.00" fromLane="0" toLane="0" via=":bottom0A0.350.00_0_0" dir="s" state="M"/>
    <connection from="bottom0A0" to="bottom0A0.350.00" fromLane="1" toLane="1" via=":bottom0A0.350.00_0_1" dir="s" state="M"/>
    <connection from="bottom0A0" to="bottom0A0.350.00" fromLane="1" toLane="2" via=":bottom0A0.350.00_0_2" dir="s" state="M"/>
    <connection from="bottom0A0.350.00" to="A0right0" fromLane="0" toLane="0" via=":A0_10_0" tl="A0" linkIndex="10" dir="r" state="O"/>
    <connection from="bottom0A0.350.00" to="A0top0" fromLane="0" toLane="0" via=":A0_11_0" tl="A0" linkIndex="11" dir="s" state="O"/>
    <connection from="bottom0A0.350.00" to="A0top0" fromLane="1" toLane="1" via=":A0_11_1" tl="A0" linkIndex="12" dir="s" state="O"/>
    <connection from="bottom0A0.350.00" to="A0left0" fromLane="2" toLane="1" via=":A0_13_0" tl="A0" linkIndex="13" dir="l" state="o"/>
    <connection from="bottom0A0.350.00" to="A0bottom0" fromLane="2" toLane="1" via=":A0_14_0" tl="A0" linkIndex="14" dir="t" state="o"/>
    <connection from="left0A0" to="left0A0.350.00" fromLane="0" toLane="0" via=":left0A0.350.00_0_0" dir="s" state="M"/>
    <connection from="left0A0" to="left0A0.350.00" fromLane="1" toLane="1" via=":left0A0.350.00_0_1" dir="s" state="M"/>
    <connection from="left0A0" to="left0A0.350.00" fromLane="1" toLane="2" via=":left0A0.350.00_0_2" dir="s" state="M"/>
    <connection from="left0A0.350.00" to="A0bottom0" fromLane="0" toLane="0" via=":A0_15_0" tl="A0" linkIndex="15" dir="r" state="o"/>
    <connection from="left0A0.350.00" to="A0right0" fromLane="0" toLane="0" via=":A0_16_0" tl="A0" linkIndex="16" dir="s" state="o"/>
    <connection from="left0A0.350.00" to="A0right0" fromLane="1" toLane="1" via=":A0_16_1" tl="A0" linkIndex="17" dir="s" state="o"/>
    <connection from="left0A0.350.00" to="A0top0" fromLane="2" toLane="1" via=":A0_18_0" tl="A0" linkIndex="18" dir="l" state="o"/>
    <connection from="left0A0.350.00" to="A0left0" fromLane="2" toLane="1" via=":A0_19_0" tl="A0" linkIndex="19" dir="t" state="o"/>
    <connection from="right0A0" to="right0A0.350.00" fromLane="0" toLane="0" via=":right0A0.350.00_0_0" dir="s" state="M"/>
    <connection from="right0A0" to="right0A0.350.00" fromLane="1" toLane="1" via=":right0A0.350.00_0_1" dir="s" state="M"/>
    <connection from="right0A0" to="right0A0.350.00" fromLane="1" toLane="2" via=":right0A0.350.00_0_2" dir="s" state="M"/>
    <connection from="right0A0.350.00" to="A0top0" fromLane="0" toLane="0" via=":A0_5_0" tl="A0" linkIndex="5" dir="r" state="o"/>
    <connection from="right0A0.350.00" to="A0left0" fromLane="0" toLane="0" via=":A0_6_0" tl="A0" linkIndex="6" dir="s" state="o"/>
    <connection from="right0A0.350.00" to="A0left0" fromLane="1" toLane="1" via=":A0_6_1" tl="A0" linkIndex="7" dir="s" state="o"/>
    <connection from="right0A0.350.00" to="A0bottom0" fromLane="2" toLane="1" via=":A0_8_0" tl="A0" linkIndex="8" dir="l" state="o"/>
    <connection from="right0A0.350.00" to="A0right0" fromLane="2" toLane="1" via=":A0_9_0" tl="A0" linkIndex="9" dir="t" state="o"/>
    <connection from="top0A0" to="top0A0.350.00" fromLane="0" toLane="0" via=":top0A0.350.00_0_0" dir="s" state="M"/>
    <connection from="top0A0" to="top0A0.350.00" fromLane="1" toLane="1" via=":top0A0.350.00_0_1" dir="s" state="M"/>
    <connection from="top0A0" to="top0A0.350.00" fromLane="1" toLane="2" via=":top0A0.350.00_0_2" dir="s" state="M"/>
    <connection from="top0A0.350.00" to="A0left0" fromLane="0" toLane="0" via=":A0_0_0" tl="A0" linkIndex="0" dir="r" state="O"/>
    <connection from="top0A0.350.00" to="A0bottom0" fromLane="0" toLane="0" via=":A0_1_0" tl="A0" linkIndex="1" dir="s" state="O"/>
    <connection from="top0A0.350.00" to="A0bottom0" fromLane="1" toLane="1" via=":A0_1_1" tl="A0" linkIndex="2" dir="s" state="O"/>
    <connection from="top0A0.350.00" to="A0right0" fromLane="2" toLane="1" via=":A0_3_0" tl="A0" linkIndex="3" dir="l" state="o"/>
    <connection from="top0A0.350.00" to="A0top0" fromLane="2" toLane="1" via=":A0_4_0" tl="A0" linkIndex="4" dir="t" state="o"/>

    <connection from=":A0_0" to="A0left0" fromLane="0" toLane="0" dir="r" state="M"/>
    <connection from=":A0_1" to="A0bottom0" fromLane="0" toLane="0" dir="s" state="M"/>
    <connection from=":A0_1" to="A0bottom0" fromLane="1" toLane="1" dir="s" state="M"/>
    <connection from=":A0_3" to="A0right0" fromLane="0" toLane="1" via=":A0_20_0" dir="l" state="m"/>
    <connection from=":A0_20" to="A0right0" fromLane="0" toLane="1" dir="l" state="M"/>
    <connection from=":A0_4" to="A0top0" fromLane="0" toLane="1" via=":A0_21_0" dir="t" state="m"/>
    <connection from=":A0_21" to="A0top0" fromLane="0" toLane="1" dir="t" state="M"/>
    <connection from=":A0_5" to="A0top0" fromLane="0" toLane="0" dir="r" state="M"/>
    <connection from=":A0_6" to="A0left0" fromLane="0" toLane="0" dir="s" state="M"/>
    <connection from=":A0_6" to="A0left0" fromLane="1" toLane="1" dir="s" state="M"/>
    <connection from=":A0_8" to="A0bottom0" fromLane="0" toLane="1" via=":A0_22_0" dir="l" state="m"/>
    <connection from=":A0_22" to="A0bottom0" fromLane="0" toLane="1" dir="l" state="M"/>
    <connection from=":A0_9" to="A0right0" fromLane="0" toLane="1" via=":A0_23_0" dir="t" state="m"/>
    <connection from=":A0_23" to="A0right0" fromLane="0" toLane="1" dir="t" state="M"/>
    <connection from=":A0_10" to="A0right0" fromLane="0" toLane="0" dir="r" state="M"/>
    <connection from=":A0_11" to="A0top0" fromLane="0" toLane="0" dir="s" state="M"/>
    <connection from=":A0_11" to="A0top0" fromLane="1" toLane="1" dir="s" state="M"/>
    <connection from=":A0_13" to="A0left0" fromLane="0" toLane="1" via=":A0_24_0" dir="l" state="m"/>
    <connection from=":A0_24" to="A0left0" fromLane="0" toLane="1" dir="l" state="M"/>
    <connection from=":A0_14" to="A0bottom0" fromLane="0" toLane="1" via=":A0_25_0" dir="t" state="m"/>
    <connection from=":A0_25" to="A0bottom0" fromLane="0" toLane="1" dir="t" state="M"/>
    <connection from=":A0_15" to="A0bottom0" fromLane="0" toLane="0" dir="r" state="M"/>
    <connection from=":A0_16" to="A0right0" fromLane="0" toLane="0" dir="s" state="M"/>
    <connection from=":A0_16" to="A0right0" fromLane="1" toLane="1" dir="s" state="M"/>
    <connection from=":A0_18" to="A0top0" fromLane="0" toLane="1" via=":A0_26_0" dir="l" state="m"/>
    <connection from=":A0_26" to="A0top0" fromLane="0" toLane="1" dir="l" state="M"/>
    <connection from=":A0_19" to="A0left0" fromLane="0" toLane="1" via=":A0_27_0" dir="t" state="m"/>
    <connection from=":A0_27" to="A0left0" fromLane="0" toLane="1" dir="t" state="M"/>
    <connection from=":bottom0_0" to="bottom0A0" fromLane="0" toLane="1" dir="t" state="M"/>
    <connection from=":bottom0A0.350.00_0" to="bottom0A0.350.00" fromLane="0" toLane="0" dir="s" state="M"/>
    <connection from=":bottom0A0.350.00_0" to="bottom0A0.350.00" fromLane="1" toLane="1" dir="s" state="M"/>
    <connection from=":bottom0A0.350.00_0" to="bottom0A0.350.00" fromLane="2" toLane="2" dir="s" state="M"/>
    <connection from=":left0_0" to="left0A0" fromLane="0" toLane="1" dir="t" state="M"/>
    <connection from=":left0A0.350.00_0" to="left0A0.350.00" fromLane="0" toLane="0" dir="s" state="M"/>
    <connection from=":left0A0.350.00_0" to="left0A0.350.00" fromLane="1" toLane="1" dir="s" state="M"/>
    <connection from=":left0A0.350.00_0" to="left0A0.350.00" fromLane="2" toLane="2" dir="s" state="M"/>
    <connection from=":right0_0" to="right0A0" fromLane="0" toLane="1" dir="t" state="M"/>
    <connection from=":right0A0.350.00_0" to="right0A0.350.00" fromLane="0" toLane="0" dir="s" state="M"/>
    <connection from=":right0A0.350.00_0" to="right0A0.350.00" fromLane="1" toLane="1" dir="s" state="M"/>
    <connection from=":right0A0.350.00_0" to="right0A0.350.00" fromLane="2" toLane="2" dir="s" state="M"/>
    <connection from=":top0_0" to="top0A0" fromLane="0" toLane="1" dir="t" state="M"/>
    <connection from=":top0A0.350.00_0" to="top0A0.350.00" fromLane="0" toLane="0" dir="s" state="M"/>